/*--------------------------------*- C++ -*----------------------------------*\
| MRF_R1 transportProperties -- water, nu = 1.0e-6 m^2/s (prereg sec.4).       |
\*---------------------------------------------------------------------------*/
FoamFile
{
    version     2.0;
    format      ascii;
    class       dictionary;
    object      transportProperties;
}
// * * * * * * * * * * * * * * * * * * * * * * * * * * * * * * * * * * * * * //

transportModel  Newtonian;

nu              1e-06;

// ************************************************************************* //
