FoamFile { version 2.0; format ascii; class uniformDimensionedVectorField; object g; }
dimensions  [0 1 -2 0 0 0 0];
value       (6.305746 0 -7.514896);
