/*--------------------------------*- C++ -*----------------------------------*\
| VMFL034-R3 Stage-1 CARRIER (answer-blind): single-phase simpleFoam k-epsilon.  |
| Produces the FROZEN carrier U/phi/k/epsilon/nut for the Stage-2 frozen solve.  |
| Decoupled from the moments (they never feed back) -> cannot be tuned to answer. |
\*---------------------------------------------------------------------------*/FoamFile { version 2.0; format ascii; class dictionary; object transportProperties; }
// * * * * * * * * * * * * * * * * * * * * * * * * * * * * * * * * * * * * * * //
transportModel  Newtonian;
nu              [0 2 -1 0 0 0 0] 1.0318e-06;   // water: mu/rho = 0.00103/998.2
// ************************************************************************* //
