FoamFile { version 2.0; format ascii; class dictionary; object transportProperties; }
transportModel  Newtonian;
nu              0.39269908169872414;   // pi/8: alpha = R sqrt(omega/nu) = 4 EXACTLY; must equal exact_f27.NU
