FoamFile
{
    version     2.0;
    format      ascii;
    class       dictionary;
    location    "constant";
    object      transportProperties;
}

transportModel  Newtonian;
nu              2.7777778e-05;
