FoamFile
{
    version 2.0;
    format ascii;
    class dictionary;
    location "constant/air";
    object radiationProperties;
}

radiation off;
radiationModel none;
